<edges>
    <!-- من الغرب إلى المركز -->
    <edge id="west_to_center" from="1" to="2" priority="1" numLanes="2" speed="13.89"/>
    <!-- من المركز إلى الشرق -->
    <edge id="center_to_east" from="2" to="3" priority="1" numLanes="2" speed="13.89"/>

    <!-- من الشرق إلى المركز -->
    <edge id="east_to_center" from="3" to="2" priority="1" numLanes="2" speed="13.89"/>
    <!-- من المركز إلى الغرب -->
    <edge id="center_to_west" from="2" to="1" priority="1" numLanes="2" speed="13.89"/>

    <!-- من الشمال إلى المركز -->
    <edge id="north_to_center" from="4" to="2" priority="1" numLanes="2" speed="13.89"/>
    <!-- من المركز إلى الجنوب -->
    <edge id="center_to_south" from="2" to="5" priority="1" numLanes="2" speed="13.89"/>

    <!-- من الجنوب إلى المركز -->
    <edge id="south_to_center" from="5" to="2" priority="1" numLanes="2" speed="13.89"/>
    <!-- من المركز إلى الشمال -->
    <edge id="center_to_north" from="2" to="4" priority="1" numLanes="2" speed="13.89"/>
</edges>
